ZINC000002443590_1
     RDKit          3D

 29 30  0  0  0  0  0  0  0  0999 V2000
   -5.2263   -2.6373    0.6632 C   0  0  0  0  0  0  0  0  0  0  0  0
   -4.2203   -1.5575    0.4462 C   0  0  0  0  0  0  0  0  0  0  0  0
   -3.1136   -1.3085    1.2478 C   0  0  0  0  0  0  0  0  0  0  0  0
   -2.4020   -0.1649    0.8661 C   0  0  0  0  0  0  0  0  0  0  0  0
   -2.9468    0.4794   -0.2433 C   0  0  0  0  0  0  0  0  0  0  0  0
   -4.3415   -0.3392   -0.7062 S   0  0  0  0  0  0  0  0  0  0  0  0
   -2.5164    1.7647   -0.8224 C   0  0  0  0  0  0  0  0  0  0  0  0
   -1.2737    2.1312   -0.9457 N   0  0  0  0  0  0  0  0  0  0  0  0
   -0.1677    1.3084   -0.6705 N   0  0  0  0  0  0  0  0  0  0  0  0
    1.1449    1.8741   -0.6047 C   0  0  0  0  0  0  0  0  0  0  0  0
    1.2989    3.1176   -0.7442 O   0  0  0  0  0  0  0  0  0  0  0  0
    2.3181    1.0172   -0.3701 C   0  0  0  0  0  0  0  0  0  0  0  0
    3.6316    1.4450   -0.2837 C   0  0  0  0  0  0  0  0  0  0  0  0
    4.3435    0.2858   -0.0580 C   0  0  0  0  0  0  0  0  0  0  0  0
    3.4908   -0.7525    0.0037 N   0  0  0  0  0  0  0  0  0  0  0  0
    2.2563   -0.3181   -0.1905 N   0  0  0  0  0  0  0  0  0  0  0  0
    5.8127    0.1892    0.1898 C   0  0  0  0  0  0  0  0  0  0  0  0
   -5.7177   -2.8958   -0.2980 H   0  0  0  0  0  0  0  0  0  0  0  0
   -5.9944   -2.2875    1.3838 H   0  0  0  0  0  0  0  0  0  0  0  0
   -4.7306   -3.5449    1.0672 H   0  0  0  0  0  0  0  0  0  0  0  0
   -2.8430   -1.9179    2.1002 H   0  0  0  0  0  0  0  0  0  0  0  0
   -1.5437    0.1991    1.4152 H   0  0  0  0  0  0  0  0  0  0  0  0
   -3.2864    2.4434   -1.1638 H   0  0  0  0  0  0  0  0  0  0  0  0
   -0.2754    0.2712   -0.6198 H   0  0  0  0  0  0  0  0  0  0  0  0
    4.0127    2.4550   -0.3623 H   0  0  0  0  0  0  0  0  0  0  0  0
    3.7402   -1.7500    0.1850 H   0  0  0  0  0  0  0  0  0  0  0  0
    6.0131    0.3097    1.2746 H   0  0  0  0  0  0  0  0  0  0  0  0
    6.1889   -0.8005   -0.1439 H   0  0  0  0  0  0  0  0  0  0  0  0
    6.3477    0.9836   -0.3720 H   0  0  0  0  0  0  0  0  0  0  0  0
  1  2  1  0
  2  3  2  0
  3  4  1  0
  4  5  2  0
  5  6  1  0
  5  7  1  0
  7  8  2  0
  8  9  1  0
  9 10  1  0
 10 11  2  0
 10 12  1  0
 12 13  1  0
 13 14  2  0
 14 15  1  0
 15 16  1  0
 14 17  1  0
  6  2  1  0
 16 12  2  0
  1 18  1  0
  1 19  1  0
  1 20  1  0
  3 21  1  0
  4 22  1  0
  7 23  1  0
  9 24  1  0
 13 25  1  0
 15 26  1  0
 17 27  1  0
 17 28  1  0
 17 29  1  0
M  END
$$$$
ZINC000002443590_2
     RDKit          3D

 29 30  0  0  0  0  0  0  0  0999 V2000
    6.3238   -0.6565   -1.7419 C   0  0  0  0  0  0  0  0  0  0  0  0
    5.2468   -0.4570   -0.7293 C   0  0  0  0  0  0  0  0  0  0  0  0
    5.4416   -0.1233    0.6058 C   0  0  0  0  0  0  0  0  0  0  0  0
    4.2450    0.0796    1.3038 C   0  0  0  0  0  0  0  0  0  0  0  0
    3.1148   -0.0786    0.5108 C   0  0  0  0  0  0  0  0  0  0  0  0
    3.5965   -0.4672   -1.0563 S   0  0  0  0  0  0  0  0  0  0  0  0
    1.7313    0.0823    0.9685 C   0  0  0  0  0  0  0  0  0  0  0  0
    0.7453   -0.0824    0.1442 N   0  0  0  0  0  0  0  0  0  0  0  0
   -0.5904    0.0642    0.5507 N   0  0  0  0  0  0  0  0  0  0  0  0
   -1.6519   -0.1260   -0.3898 C   0  0  0  0  0  0  0  0  0  0  0  0
   -1.3838   -0.4262   -1.5846 O   0  0  0  0  0  0  0  0  0  0  0  0
   -3.0556    0.0254    0.0251 C   0  0  0  0  0  0  0  0  0  0  0  0
   -4.1639   -0.1262   -0.7901 C   0  0  0  0  0  0  0  0  0  0  0  0
   -5.2297    0.1130    0.0514 C   0  0  0  0  0  0  0  0  0  0  0  0
   -4.7667    0.4066    1.2796 N   0  0  0  0  0  0  0  0  0  0  0  0
   -3.4449    0.3502    1.2750 N   0  0  0  0  0  0  0  0  0  0  0  0
   -6.6697    0.1520   -0.3409 C   0  0  0  0  0  0  0  0  0  0  0  0
    7.2119   -1.1243   -1.2673 H   0  0  0  0  0  0  0  0  0  0  0  0
    6.6124    0.3247   -2.1724 H   0  0  0  0  0  0  0  0  0  0  0  0
    5.9617   -1.3199   -2.5549 H   0  0  0  0  0  0  0  0  0  0  0  0
    6.4180   -0.0230    1.0614 H   0  0  0  0  0  0  0  0  0  0  0  0
    4.2089    0.3429    2.3529 H   0  0  0  0  0  0  0  0  0  0  0  0
    1.5430    0.3403    2.0042 H   0  0  0  0  0  0  0  0  0  0  0  0
   -0.8139    0.3127    1.5416 H   0  0  0  0  0  0  0  0  0  0  0  0
   -4.1904   -0.3653   -1.8454 H   0  0  0  0  0  0  0  0  0  0  0  0
   -5.3406    0.6525    2.1164 H   0  0  0  0  0  0  0  0  0  0  0  0
   -7.3060   -0.1278    0.5246 H   0  0  0  0  0  0  0  0  0  0  0  0
   -6.9345    1.1773   -0.6729 H   0  0  0  0  0  0  0  0  0  0  0  0
   -6.8591   -0.5618   -1.1701 H   0  0  0  0  0  0  0  0  0  0  0  0
  1  2  1  0
  2  3  2  0
  3  4  1  0
  4  5  2  0
  5  6  1  0
  5  7  1  0
  7  8  2  0
  8  9  1  0
  9 10  1  0
 10 11  2  0
 10 12  1  0
 12 13  1  0
 13 14  2  0
 14 15  1  0
 15 16  1  0
 14 17  1  0
  6  2  1  0
 16 12  2  0
  1 18  1  0
  1 19  1  0
  1 20  1  0
  3 21  1  0
  4 22  1  0
  7 23  1  0
  9 24  1  0
 13 25  1  0
 15 26  1  0
 17 27  1  0
 17 28  1  0
 17 29  1  0
M  END
$$$$
ZINC000002443590
     RDKit          3D

 29 30  0  0  0  0  0  0  0  0999 V2000
   -6.5968   -1.0592   -0.0047 C   0  0  0  0  0  0  0  0  0  0  0  0
   -5.1977   -0.5858   -0.2227 C   0  0  0  0  0  0  0  0  0  0  0  0
   -4.0840   -0.9875    0.4842 C   0  0  0  0  0  0  0  0  0  0  0  0
   -3.0376   -0.3356   -0.1448 C   0  0  0  0  0  0  0  0  0  0  0  0
   -1.6166   -0.4254    0.2270 C   0  0  0  0  0  0  0  0  0  0  0  0
   -1.2720   -1.1442    1.2038 O   0  0  0  0  0  0  0  0  0  0  0  0
   -0.6244    0.2956   -0.5099 N   0  0  0  0  0  0  0  0  0  0  0  0
    0.7285    0.2026   -0.1468 N   0  0  0  0  0  0  0  0  0  0  0  0
    1.6534    0.8414   -0.7913 C   0  0  0  0  0  0  0  0  0  0  0  0
    3.0571    0.7220   -0.3853 C   0  0  0  0  0  0  0  0  0  0  0  0
    4.1276    1.3548   -1.0058 C   0  0  0  0  0  0  0  0  0  0  0  0
    5.3620    1.0554   -0.4170 C   0  0  0  0  0  0  0  0  0  0  0  0
    5.2553    0.2020    0.6748 C   0  0  0  0  0  0  0  0  0  0  0  0
    6.3962   -0.3566    1.4568 C   0  0  0  0  0  0  0  0  0  0  0  0
    3.6388   -0.2110    0.8914 S   0  0  0  0  0  0  0  0  0  0  0  0
   -3.5057    0.3988   -1.1748 N   0  0  0  0  0  0  0  0  0  0  0  0
   -4.8179    0.2360   -1.2175 N   0  0  0  0  0  0  0  0  0  0  0  0
   -6.7612   -1.2826    1.0704 H   0  0  0  0  0  0  0  0  0  0  0  0
   -6.7729   -1.9785   -0.6008 H   0  0  0  0  0  0  0  0  0  0  0  0
   -7.3159   -0.2749   -0.3213 H   0  0  0  0  0  0  0  0  0  0  0  0
   -4.0401   -1.6648    1.3274 H   0  0  0  0  0  0  0  0  0  0  0  0
   -0.9113    0.8919   -1.3197 H   0  0  0  0  0  0  0  0  0  0  0  0
    1.3984    1.4702   -1.6364 H   0  0  0  0  0  0  0  0  0  0  0  0
    4.0232    2.0060   -1.8639 H   0  0  0  0  0  0  0  0  0  0  0  0
    6.3031    1.4457   -0.7818 H   0  0  0  0  0  0  0  0  0  0  0  0
    7.2141    0.3911    1.5254 H   0  0  0  0  0  0  0  0  0  0  0  0
    6.0616   -0.6159    2.4829 H   0  0  0  0  0  0  0  0  0  0  0  0
    6.7761   -1.2704    0.9546 H   0  0  0  0  0  0  0  0  0  0  0  0
   -5.4414    0.6788   -1.9283 H   0  0  0  0  0  0  0  0  0  0  0  0
  1  2  1  0
  2  3  2  0
  3  4  1  0
  4  5  1  0
  5  6  2  0
  5  7  1  0
  7  8  1  0
  8  9  2  3
  9 10  1  0
 10 11  2  0
 11 12  1  0
 12 13  2  0
 13 14  1  0
 13 15  1  0
  4 16  2  0
 16 17  1  0
 17  2  1  0
 15 10  1  0
  1 18  1  0
  1 19  1  0
  1 20  1  0
  3 21  1  0
  7 22  1  0
  9 23  1  0
 11 24  1  0
 12 25  1  0
 14 26  1  0
 14 27  1  0
 14 28  1  0
 17 29  1  0
M  END
$$$$
