ZINC000002443590_1
     RDKit          3D

 29 30  0  0  0  0  0  0  0  0999 V2000
   -5.2263   -2.6373    0.6632 C   0  0  0  0  0  0  0  0  0  0  0  0
   -4.2203   -1.5575    0.4462 C   0  0  0  0  0  0  0  0  0  0  0  0
   -3.1136   -1.3085    1.2478 C   0  0  0  0  0  0  0  0  0  0  0  0
   -2.4020   -0.1649    0.8661 C   0  0  0  0  0  0  0  0  0  0  0  0
   -2.9468    0.4794   -0.2433 C   0  0  0  0  0  0  0  0  0  0  0  0
   -4.3415   -0.3392   -0.7062 S   0  0  0  0  0  0  0  0  0  0  0  0
   -2.5164    1.7647   -0.8224 C   0  0  0  0  0  0  0  0  0  0  0  0
   -1.2737    2.1312   -0.9457 N   0  0  0  0  0  0  0  0  0  0  0  0
   -0.1677    1.3084   -0.6705 N   0  0  0  0  0  0  0  0  0  0  0  0
    1.1449    1.8741   -0.6047 C   0  0  0  0  0  0  0  0  0  0  0  0
    1.2989    3.1176   -0.7442 O   0  0  0  0  0  0  0  0  0  0  0  0
    2.3181    1.0172   -0.3701 C   0  0  0  0  0  0  0  0  0  0  0  0
    3.6316    1.4450   -0.2837 C   0  0  0  0  0  0  0  0  0  0  0  0
    4.3435    0.2858   -0.0580 C   0  0  0  0  0  0  0  0  0  0  0  0
    3.4908   -0.7525    0.0037 N   0  0  0  0  0  0  0  0  0  0  0  0
    2.2563   -0.3181   -0.1905 N   0  0  0  0  0  0  0  0  0  0  0  0
    5.8127    0.1892    0.1898 C   0  0  0  0  0  0  0  0  0  0  0  0
   -5.7177   -2.8958   -0.2980 H   0  0  0  0  0  0  0  0  0  0  0  0
   -5.9944   -2.2875    1.3838 H   0  0  0  0  0  0  0  0  0  0  0  0
   -4.7306   -3.5449    1.0672 H   0  0  0  0  0  0  0  0  0  0  0  0
   -2.8430   -1.9179    2.1002 H   0  0  0  0  0  0  0  0  0  0  0  0
   -1.5437    0.1991    1.4152 H   0  0  0  0  0  0  0  0  0  0  0  0
   -3.2864    2.4434   -1.1638 H   0  0  0  0  0  0  0  0  0  0  0  0
   -0.2754    0.2712   -0.6198 H   0  0  0  0  0  0  0  0  0  0  0  0
    4.0127    2.4550   -0.3623 H   0  0  0  0  0  0  0  0  0  0  0  0
    3.7402   -1.7500    0.1850 H   0  0  0  0  0  0  0  0  0  0  0  0
    6.0131    0.3097    1.2746 H   0  0  0  0  0  0  0  0  0  0  0  0
    6.1889   -0.8005   -0.1439 H   0  0  0  0  0  0  0  0  0  0  0  0
    6.3477    0.9836   -0.3720 H   0  0  0  0  0  0  0  0  0  0  0  0
  1  2  1  0
  2  3  2  0
  3  4  1  0
  4  5  2  0
  5  6  1  0
  5  7  1  0
  7  8  2  0
  8  9  1  0
  9 10  1  0
 10 11  2  0
 10 12  1  0
 12 13  1  0
 13 14  2  0
 14 15  1  0
 15 16  1  0
 14 17  1  0
  6  2  1  0
 16 12  2  0
  1 18  1  0
  1 19  1  0
  1 20  1  0
  3 21  1  0
  4 22  1  0
  7 23  1  0
  9 24  1  0
 13 25  1  0
 15 26  1  0
 17 27  1  0
 17 28  1  0
 17 29  1  0
M  END
$$$$
